LTspice 26.0.1 for Windows
Circuit: C:\Users\Michele\Desktop\elettronica\dimmer led\Draft1.net
Start Time: Mon Jan  5 00:16:44 2026
solver = Normal
Maximum thread count: 8
tnom = 27
temp = 27
method = trap
Direct Newton iteration succeeded in finding operating point.
Total elapsed time: 0.115 seconds.

Files loaded:
C:\Users\Michele\Desktop\elettronica\dimmer led\Draft1.net
C:\Users\Michele\AppData\Local\LTspice\lib\cmp\standard.bjt
C:\Users\Michele\AppData\Local\LTspice\lib\cmp\standard.mos

